Questionable use of curly braces in "v2 i2c1 0 pulse(0 5 0 10n 10n {t} 2*{t} 1/{f})"
    Error: undefined symbol in: "[f]"
Circuit: * Z:\home\aryangarg\Documents\Team-anant\pcb-repo\GOD-FINAL-PCB\I2CProtSim.asc

Warning: Multiple definitions of model "2scr375p" Type: BJT
Warning: Multiple definitions of model "bc857b" Type: BJT
Warning: Multiple definitions of model "bc847c" Type: BJT
Warning: Multiple definitions of model "bc847b" Type: BJT
Error on line 12 : v2 i2c1 0 pulse(0 5 0 10n 10n  1e-06  2* 1e-06  1/(f))
	 Unknown parameter "*"
Instance "m:m1:1": Width narrower than recommended for a level 3 MOSFET.
Instance "m:m2:1": Width narrower than recommended for a level 3 MOSFET.
Direct Newton iteration for .op point succeeded.
.step t=1e-06
.step t=2e-06
.step t=3e-06
.step t=4e-06
.step t=5e-06
.step t=6e-06
.step t=7e-06
.step t=8e-06
.step t=9e-06
.step t=1e-05
.step t=1.1e-05
.step t=1.2e-05
.step t=1.3e-05
.step t=1.4e-05
.step t=1.5e-05
.step t=1.6e-05
.step t=1.7e-05
.step t=1.8e-05
.step t=1.9e-05
.step t=2e-05
.step t=2.1e-05
.step t=2.2e-05
.step t=2.3e-05
.step t=2.4e-05
.step t=2.5e-05
.step t=2.6e-05
.step t=2.7e-05
.step t=2.8e-05
.step t=2.9e-05
.step t=3e-05
.step t=3.1e-05
.step t=3.2e-05
.step t=3.3e-05
.step t=3.4e-05
.step t=3.5e-05
.step t=3.6e-05
.step t=3.7e-05
.step t=3.8e-05
.step t=3.9e-05
.step t=4e-05
.step t=4.1e-05
.step t=4.2e-05
.step t=4.3e-05
.step t=4.4e-05
.step t=4.5e-05
.step t=4.6e-05
.step t=4.7e-05
.step t=4.8e-05
.step t=4.9e-05
.step t=5e-05
.step t=5.1e-05
.step t=5.2e-05
.step t=5.3e-05
.step t=5.4e-05
.step t=5.5e-05
.step t=5.6e-05
.step t=5.7e-05
.step t=5.8e-05
.step t=5.9e-05
.step t=6e-05
.step t=6.1e-05
.step t=6.2e-05
.step t=6.3e-05
.step t=6.4e-05
.step t=6.5e-05
.step t=6.6e-05
.step t=6.7e-05
.step t=6.8e-05
.step t=6.9e-05
.step t=7e-05
.step t=7.1e-05
.step t=7.2e-05
.step t=7.3e-05
.step t=7.4e-05
.step t=7.5e-05
.step t=7.6e-05
.step t=7.7e-05
.step t=7.8e-05
.step t=7.9e-05
.step t=8e-05
.step t=8.1e-05
.step t=8.2e-05
.step t=8.3e-05
.step t=8.4e-05
.step t=8.5e-05
.step t=8.6e-05
.step t=8.7e-05
.step t=8.8e-05
.step t=8.9e-05
.step t=9e-05
.step t=9.1e-05
.step t=9.2e-05
.step t=9.3e-05
.step t=9.4e-05
.step t=9.5e-05
.step t=9.6e-05
.step t=9.7e-05
.step t=9.8e-05
.step t=9.9e-05
.step t=0.0001
.step t=0.000101
.step t=0.000102
.step t=0.000103
.step t=0.000104
.step t=0.000105
.step t=0.000106
.step t=0.000107
.step t=0.000108
.step t=0.000109
.step t=0.00011
.step t=0.000111
.step t=0.000112
.step t=0.000113
.step t=0.000114
.step t=0.000115
.step t=0.000116
.step t=0.000117
.step t=0.000118
.step t=0.000119
.step t=0.00012
.step t=0.000121
.step t=0.000122
.step t=0.000123
.step t=0.000124
.step t=0.000125
.step t=0.000126
.step t=0.000127
.step t=0.000128
.step t=0.000129
.step t=0.00013
.step t=0.000131
.step t=0.000132
.step t=0.000133
.step t=0.000134
.step t=0.000135
.step t=0.000136
.step t=0.000137
.step t=0.000138
.step t=0.000139
.step t=0.00014
.step t=0.000141
.step t=0.000142
.step t=0.000143
.step t=0.000144
.step t=0.000145
.step t=0.000146
.step t=0.000147
.step t=0.000148
.step t=0.000149
.step t=0.00015
.step t=0.000151
.step t=0.000152
.step t=0.000153
.step t=0.000154
.step t=0.000155
.step t=0.000156
.step t=0.000157
.step t=0.000158
.step t=0.000159
.step t=0.00016
.step t=0.000161
.step t=0.000162
.step t=0.000163
.step t=0.000164
.step t=0.000165
.step t=0.000166
.step t=0.000167
.step t=0.000168
.step t=0.000169
.step t=0.00017
.step t=0.000171
.step t=0.000172
.step t=0.000173
.step t=0.000174
.step t=0.000175
.step t=0.000176
.step t=0.000177
.step t=0.000178
.step t=0.000179
.step t=0.00018
.step t=0.000181
.step t=0.000182
.step t=0.000183
.step t=0.000184
.step t=0.000185
.step t=0.000186
.step t=0.000187
.step t=0.000188
.step t=0.000189
.step t=0.00019
.step t=0.000191
.step t=0.000192
.step t=0.000193
.step t=0.000194
.step t=0.000195
.step t=0.000196
.step t=0.000197
.step t=0.000198
.step t=0.000199
.step t=0.0002
.step t=0.000201
.step t=0.000202
.step t=0.000203
.step t=0.000204
.step t=0.000205
.step t=0.000206
.step t=0.000207
.step t=0.000208
.step t=0.000209
.step t=0.00021
.step t=0.000211
.step t=0.000212
.step t=0.000213
.step t=0.000214
.step t=0.000215
.step t=0.000216
.step t=0.000217
.step t=0.000218
.step t=0.000219
.step t=0.00022
.step t=0.000221
.step t=0.000222
.step t=0.000223
.step t=0.000224
.step t=0.000225
.step t=0.000226
.step t=0.000227
.step t=0.000228
.step t=0.000229
.step t=0.00023
.step t=0.000231
.step t=0.000232
.step t=0.000233
.step t=0.000234
.step t=0.000235
.step t=0.000236
.step t=0.000237
.step t=0.000238
.step t=0.000239
.step t=0.00024
.step t=0.000241
.step t=0.000242
.step t=0.000243
.step t=0.000244
.step t=0.000245
.step t=0.000246
.step t=0.000247
.step t=0.000248
.step t=0.000249
.step t=0.00025
.step t=0.000251
.step t=0.000252
.step t=0.000253
.step t=0.000254
.step t=0.000255
.step t=0.000256
.step t=0.000257
.step t=0.000258
.step t=0.000259
.step t=0.00026
.step t=0.000261
.step t=0.000262
.step t=0.000263
.step t=0.000264
.step t=0.000265
.step t=0.000266
.step t=0.000267
.step t=0.000268
.step t=0.000269
.step t=0.00027
.step t=0.000271
.step t=0.000272
.step t=0.000273
.step t=0.000274
.step t=0.000275
.step t=0.000276
.step t=0.000277
.step t=0.000278
.step t=0.000279
.step t=0.00028
.step t=0.000281
.step t=0.000282
.step t=0.000283
.step t=0.000284
.step t=0.000285
.step t=0.000286
.step t=0.000287
.step t=0.000288
.step t=0.000289
.step t=0.00029
.step t=0.000291
.step t=0.000292
.step t=0.000293
.step t=0.000294
.step t=0.000295
.step t=0.000296
.step t=0.000297
.step t=0.000298
.step t=0.000299
.step t=0.0003
.step t=0.000301
.step t=0.000302
.step t=0.000303
.step t=0.000304
.step t=0.000305
.step t=0.000306
.step t=0.000307
.step t=0.000308
.step t=0.000309
.step t=0.00031
.step t=0.000311
.step t=0.000312
.step t=0.000313
.step t=0.000314
.step t=0.000315
.step t=0.000316
.step t=0.000317
.step t=0.000318
.step t=0.000319
.step t=0.00032
.step t=0.000321
.step t=0.000322
.step t=0.000323
.step t=0.000324
.step t=0.000325
.step t=0.000326
.step t=0.000327
.step t=0.000328
.step t=0.000329
.step t=0.00033
.step t=0.000331
.step t=0.000332
.step t=0.000333
.step t=0.000334
.step t=0.000335
.step t=0.000336
.step t=0.000337
.step t=0.000338
.step t=0.000339
.step t=0.00034
.step t=0.000341
.step t=0.000342
.step t=0.000343
.step t=0.000344
.step t=0.000345
.step t=0.000346
.step t=0.000347
.step t=0.000348
.step t=0.000349
.step t=0.00035
.step t=0.000351
.step t=0.000352
.step t=0.000353
.step t=0.000354
.step t=0.000355
.step t=0.000356
.step t=0.000357
.step t=0.000358
.step t=0.000359
.step t=0.00036
.step t=0.000361
.step t=0.000362
.step t=0.000363
.step t=0.000364
.step t=0.000365
.step t=0.000366
.step t=0.000367
.step t=0.000368
.step t=0.000369
.step t=0.00037
.step t=0.000371
.step t=0.000372
.step t=0.000373
.step t=0.000374
.step t=0.000375
.step t=0.000376
.step t=0.000377
.step t=0.000378
.step t=0.000379
.step t=0.00038
.step t=0.000381
.step t=0.000382
.step t=0.000383
.step t=0.000384
.step t=0.000385
.step t=0.000386
.step t=0.000387
.step t=0.000388
.step t=0.000389
.step t=0.00039
.step t=0.000391
.step t=0.000392
.step t=0.000393
.step t=0.000394
.step t=0.000395
.step t=0.000396
.step t=0.000397
.step t=0.000398
.step t=0.000399
.step t=0.0004
.step t=0.000401
.step t=0.000402
.step t=0.000403
.step t=0.000404
.step t=0.000405
.step t=0.000406
.step t=0.000407
.step t=0.000408
.step t=0.000409
.step t=0.00041
.step t=0.000411
.step t=0.000412
.step t=0.000413
.step t=0.000414
.step t=0.000415
.step t=0.000416
.step t=0.000417
.step t=0.000418
.step t=0.000419
.step t=0.00042
.step t=0.000421
.step t=0.000422
.step t=0.000423
.step t=0.000424
.step t=0.000425
.step t=0.000426
.step t=0.000427
.step t=0.000428
.step t=0.000429
.step t=0.00043
.step t=0.000431
.step t=0.000432
.step t=0.000433
.step t=0.000434
.step t=0.000435
.step t=0.000436
.step t=0.000437
.step t=0.000438
.step t=0.000439
.step t=0.00044
.step t=0.000441
.step t=0.000442
.step t=0.000443
.step t=0.000444
.step t=0.000445
.step t=0.000446
.step t=0.000447
.step t=0.000448
.step t=0.000449
.step t=0.00045
.step t=0.000451
.step t=0.000452
.step t=0.000453
.step t=0.000454
.step t=0.000455
.step t=0.000456
.step t=0.000457
.step t=0.000458
.step t=0.000459
.step t=0.00046
.step t=0.000461
.step t=0.000462
.step t=0.000463
.step t=0.000464
.step t=0.000465
.step t=0.000466
.step t=0.000467
.step t=0.000468
.step t=0.000469
.step t=0.00047
.step t=0.000471
.step t=0.000472
.step t=0.000473
.step t=0.000474
.step t=0.000475
.step t=0.000476
.step t=0.000477
.step t=0.000478
.step t=0.000479
.step t=0.00048
.step t=0.000481
.step t=0.000482
.step t=0.000483
.step t=0.000484
.step t=0.000485
.step t=0.000486
.step t=0.000487
.step t=0.000488
.step t=0.000489
.step t=0.00049
.step t=0.000491
.step t=0.000492
.step t=0.000493
.step t=0.000494
.step t=0.000495
.step t=0.000496
.step t=0.000497
.step t=0.000498
.step t=0.000499
.step t=0.0005
.step t=0.000501
.step t=0.000502
.step t=0.000503
.step t=0.000504
.step t=0.000505
.step t=0.000506
.step t=0.000507
.step t=0.000508
.step t=0.000509
.step t=0.00051
.step t=0.000511
.step t=0.000512
.step t=0.000513
.step t=0.000514
.step t=0.000515
.step t=0.000516
.step t=0.000517
.step t=0.000518
.step t=0.000519
.step t=0.00052
.step t=0.000521
.step t=0.000522
.step t=0.000523
.step t=0.000524
.step t=0.000525
.step t=0.000526
.step t=0.000527
.step t=0.000528
.step t=0.000529
.step t=0.00053
.step t=0.000531
.step t=0.000532
.step t=0.000533
.step t=0.000534
.step t=0.000535
.step t=0.000536
.step t=0.000537
.step t=0.000538
.step t=0.000539
.step t=0.00054
.step t=0.000541
.step t=0.000542
.step t=0.000543
.step t=0.000544
.step t=0.000545
.step t=0.000546
.step t=0.000547
.step t=0.000548
.step t=0.000549
.step t=0.00055
.step t=0.000551
.step t=0.000552
.step t=0.000553
.step t=0.000554
.step t=0.000555
.step t=0.000556
.step t=0.000557
.step t=0.000558
.step t=0.000559
.step t=0.00056
.step t=0.000561
.step t=0.000562
.step t=0.000563
.step t=0.000564
.step t=0.000565
.step t=0.000566
.step t=0.000567
.step t=0.000568
.step t=0.000569
.step t=0.00057
.step t=0.000571
.step t=0.000572
.step t=0.000573
.step t=0.000574
.step t=0.000575
.step t=0.000576
.step t=0.000577
.step t=0.000578
.step t=0.000579
.step t=0.00058
.step t=0.000581
.step t=0.000582
.step t=0.000583
.step t=0.000584
.step t=0.000585
.step t=0.000586
.step t=0.000587
.step t=0.000588
.step t=0.000589
.step t=0.00059
.step t=0.000591
.step t=0.000592
.step t=0.000593
.step t=0.000594
.step t=0.000595
.step t=0.000596
.step t=0.000597
.step t=0.000598
.step t=0.000599
.step t=0.0006
.step t=0.000601
.step t=0.000602
.step t=0.000603
.step t=0.000604
.step t=0.000605
.step t=0.000606
.step t=0.000607
.step t=0.000608
.step t=0.000609
.step t=0.00061
.step t=0.000611
.step t=0.000612
.step t=0.000613
.step t=0.000614
.step t=0.000615
.step t=0.000616
.step t=0.000617
.step t=0.000618
.step t=0.000619
.step t=0.00062
.step t=0.000621
.step t=0.000622
.step t=0.000623
.step t=0.000624
.step t=0.000625
.step t=0.000626
.step t=0.000627
.step t=0.000628
.step t=0.000629
.step t=0.00063
.step t=0.000631
.step t=0.000632
.step t=0.000633
.step t=0.000634
.step t=0.000635
.step t=0.000636
.step t=0.000637
.step t=0.000638
.step t=0.000639
.step t=0.00064
.step t=0.000641
.step t=0.000642
.step t=0.000643
.step t=0.000644
.step t=0.000645
.step t=0.000646
.step t=0.000647
.step t=0.000648
.step t=0.000649
.step t=0.00065
.step t=0.000651
.step t=0.000652
.step t=0.000653
.step t=0.000654
.step t=0.000655
.step t=0.000656
.step t=0.000657
.step t=0.000658
.step t=0.000659
.step t=0.00066
.step t=0.000661
.step t=0.000662
.step t=0.000663
.step t=0.000664
.step t=0.000665
.step t=0.000666
.step t=0.000667
.step t=0.000668
.step t=0.000669
.step t=0.00067
.step t=0.000671
.step t=0.000672
.step t=0.000673
.step t=0.000674
.step t=0.000675
.step t=0.000676
.step t=0.000677
.step t=0.000678
.step t=0.000679
.step t=0.00068
.step t=0.000681
.step t=0.000682
.step t=0.000683
.step t=0.000684
.step t=0.000685
.step t=0.000686
.step t=0.000687
.step t=0.000688
.step t=0.000689
.step t=0.00069
.step t=0.000691
.step t=0.000692
.step t=0.000693
.step t=0.000694
.step t=0.000695
.step t=0.000696
.step t=0.000697
.step t=0.000698
.step t=0.000699
.step t=0.0007
.step t=0.000701
.step t=0.000702
.step t=0.000703
.step t=0.000704
.step t=0.000705
.step t=0.000706
.step t=0.000707
.step t=0.000708
.step t=0.000709
.step t=0.00071
.step t=0.000711
.step t=0.000712
.step t=0.000713
.step t=0.000714
.step t=0.000715
.step t=0.000716
.step t=0.000717
.step t=0.000718
.step t=0.000719
.step t=0.00072
.step t=0.000721
.step t=0.000722
.step t=0.000723
.step t=0.000724
.step t=0.000725
.step t=0.000726
.step t=0.000727
.step t=0.000728
.step t=0.000729
.step t=0.00073
.step t=0.000731
.step t=0.000732
.step t=0.000733
.step t=0.000734
.step t=0.000735
.step t=0.000736
.step t=0.000737
.step t=0.000738
.step t=0.000739
.step t=0.00074
.step t=0.000741
.step t=0.000742
.step t=0.000743
.step t=0.000744
.step t=0.000745
.step t=0.000746
.step t=0.000747
.step t=0.000748
.step t=0.000749
.step t=0.00075
.step t=0.000751
.step t=0.000752
.step t=0.000753
.step t=0.000754
.step t=0.000755
.step t=0.000756
.step t=0.000757
.step t=0.000758
.step t=0.000759
.step t=0.00076
.step t=0.000761
.step t=0.000762
.step t=0.000763
.step t=0.000764
.step t=0.000765
.step t=0.000766
.step t=0.000767
.step t=0.000768
.step t=0.000769
.step t=0.00077
.step t=0.000771
.step t=0.000772
.step t=0.000773
.step t=0.000774
.step t=0.000775
.step t=0.000776
.step t=0.000777
.step t=0.000778
.step t=0.000779
.step t=0.00078
.step t=0.000781
.step t=0.000782
.step t=0.000783
.step t=0.000784
.step t=0.000785
.step t=0.000786
.step t=0.000787
.step t=0.000788
.step t=0.000789
.step t=0.00079
.step t=0.000791
.step t=0.000792
.step t=0.000793
.step t=0.000794
.step t=0.000795
.step t=0.000796
.step t=0.000797
.step t=0.000798
.step t=0.000799
.step t=0.0008
.step t=0.000801
.step t=0.000802
.step t=0.000803
.step t=0.000804
.step t=0.000805
.step t=0.000806
.step t=0.000807
.step t=0.000808
.step t=0.000809
.step t=0.00081
.step t=0.000811
.step t=0.000812
.step t=0.000813
.step t=0.000814
.step t=0.000815
.step t=0.000816
.step t=0.000817
.step t=0.000818
.step t=0.000819
.step t=0.00082
.step t=0.000821
.step t=0.000822
.step t=0.000823
.step t=0.000824
.step t=0.000825
.step t=0.000826
.step t=0.000827
.step t=0.000828
.step t=0.000829
.step t=0.00083
.step t=0.000831
.step t=0.000832
.step t=0.000833
.step t=0.000834
.step t=0.000835
.step t=0.000836
.step t=0.000837
.step t=0.000838
.step t=0.000839
.step t=0.00084
.step t=0.000841
.step t=0.000842
.step t=0.000843
.step t=0.000844
.step t=0.000845
.step t=0.000846
.step t=0.000847
.step t=0.000848
.step t=0.000849
.step t=0.00085
.step t=0.000851
.step t=0.000852
.step t=0.000853
.step t=0.000854
.step t=0.000855
.step t=0.000856
.step t=0.000857
.step t=0.000858
.step t=0.000859
.step t=0.00086
.step t=0.000861
.step t=0.000862
.step t=0.000863
.step t=0.000864
.step t=0.000865
.step t=0.000866
.step t=0.000867
.step t=0.000868
.step t=0.000869
.step t=0.00087
.step t=0.000871
.step t=0.000872
.step t=0.000873
.step t=0.000874
.step t=0.000875
.step t=0.000876
.step t=0.000877
.step t=0.000878
.step t=0.000879
.step t=0.00088
.step t=0.000881
.step t=0.000882
.step t=0.000883
.step t=0.000884
.step t=0.000885
.step t=0.000886
.step t=0.000887
.step t=0.000888
.step t=0.000889
.step t=0.00089
.step t=0.000891
.step t=0.000892
.step t=0.000893
.step t=0.000894
.step t=0.000895
.step t=0.000896
.step t=0.000897
.step t=0.000898
.step t=0.000899
.step t=0.0009
.step t=0.000901
.step t=0.000902
.step t=0.000903
.step t=0.000904
.step t=0.000905
.step t=0.000906
.step t=0.000907
.step t=0.000908
.step t=0.000909
.step t=0.00091
.step t=0.000911
.step t=0.000912
.step t=0.000913
.step t=0.000914
.step t=0.000915
.step t=0.000916
.step t=0.000917
.step t=0.000918
.step t=0.000919
.step t=0.00092
.step t=0.000921
.step t=0.000922
.step t=0.000923
.step t=0.000924
.step t=0.000925
.step t=0.000926
.step t=0.000927
.step t=0.000928
.step t=0.000929
.step t=0.00093
.step t=0.000931
.step t=0.000932
.step t=0.000933
.step t=0.000934
.step t=0.000935
.step t=0.000936
.step t=0.000937
.step t=0.000938
.step t=0.000939
.step t=0.00094
.step t=0.000941
.step t=0.000942
.step t=0.000943
.step t=0.000944
.step t=0.000945
.step t=0.000946
.step t=0.000947
.step t=0.000948
.step t=0.000949
.step t=0.00095
.step t=0.000951
.step t=0.000952
.step t=0.000953
.step t=0.000954
.step t=0.000955
.step t=0.000956
.step t=0.000957
.step t=0.000958
.step t=0.000959
.step t=0.00096
.step t=0.000961
.step t=0.000962
.step t=0.000963
.step t=0.000964
.step t=0.000965
.step t=0.000966
.step t=0.000967
.step t=0.000968
.step t=0.000969
.step t=0.00097
.step t=0.000971
.step t=0.000972
.step t=0.000973
.step t=0.000974
.step t=0.000975
.step t=0.000976
.step t=0.000977
.step t=0.000978
.step t=0.000979
.step t=0.00098
.step t=0.000981
.step t=0.000982
.step t=0.000983
.step t=0.000984
.step t=0.000985
.step t=0.000986
.step t=0.000987
.step t=0.000988
.step t=0.000989
.step t=0.00099
.step t=0.000991
.step t=0.000992
.step t=0.000993
.step t=0.000994
.step t=0.000995
.step t=0.000996
.step t=0.000997
.step t=0.000998
.step t=0.000999
.step t=0.001

Date: Fri Jan 31 04:10:09 2025
Total elapsed time: 74.778 seconds.

tnom = 27
temp = 27
method = modified trap
totiter = 3347
traniter = 3331
tranpoints = 1507
accept = 1402
rejected = 105
matrix size = 34
fillins = 10
solver = Normal
Avg thread counts: 1.2/1.4/1.4/1.2
Matrix Compiler1:     145 opcodes  0.9/[0.3]/0.4
Matrix Compiler2:     240 opcodes  0.4/[0.4]/0.5

